9
	15.575117521766634
  C       -0.42639        1.27832       -0.00000
  O       -0.00684       -0.01022        0.00000
  C        1.34746        0.00230        0.00000
  C        0.67330        2.12737       -0.00000
  C        1.79746        1.31754       -0.00000
  H       -1.40432        1.57727        0.00000
  H        1.94511       -0.82866        0.00000
  H        0.65553        3.14938       -0.00000
  H        2.76979        1.62524        0.00000
