4
Coordinates from ORCA-job ammonia_OPT
  N   -0.00859718074350     -0.01217693160782      0.02107436033958
  H   -0.32685852756023     -0.46222931752649     -0.82807481915500
  H   -0.32685539883200      0.94826006647733     -0.01374106368456
  H   1.00298110713573      0.00792618265698     -0.01372847750002
