9
Coordinates from ORCA-job furan_OPT
  C   -0.39676264568463      1.30938890617084     -0.00000126213483
  O   0.01619516748592      0.02319669092913     -0.00000027384336
  C   1.36714235328962      0.04242866997445      0.00000144485415
  C   0.66444693667629      2.14892331412032      0.00000232549554
  C   1.82369151198614      1.31620948753665     -0.00000222080346
  H   -1.46289590925401      1.46359924661731     -0.00000256714467
  H   1.85423291996199     -0.91843438017352      0.00000267931109
  H   0.62889001169015      3.22643981116141      0.00000374058755
  H   2.85615965384852      1.62678825366340     -0.00000386632201
